# generated using pymatgen
data_La2CuO4
_symmetry_space_group_name_H-M   'P 1'
_cell_length_a   5.35630400
_cell_length_b   13.10394800
_cell_length_c   5.54339200
_cell_angle_alpha   90.00000000
_cell_angle_beta   90.00000000
_cell_angle_gamma   90.00000000
_symmetry_Int_Tables_number   1
_chemical_formula_structural   La2CuO4
_chemical_formula_sum   'La8 Cu4 O16'
_cell_volume   389.08363932
_cell_formula_units_Z   4
loop_
 _symmetry_equiv_pos_site_id
 _symmetry_equiv_pos_as_xyz
  1  'x, y, z'
loop_
 _atom_site_type_symbol
 _atom_site_label
 _atom_site_symmetry_multiplicity
 _atom_site_fract_x
 _atom_site_fract_y
 _atom_site_fract_z
 _atom_site_occupancy
  La  La0  1  0.00000000  0.63898900  0.98534600  1
  La  La1  1  0.50000000  0.86101100  0.01465400  1
  La  La2  1  0.50000000  0.63898900  0.51465400  1
  La  La3  1  0.00000000  0.86101100  0.48534600  1
  La  La4  1  0.50000000  0.13898900  0.98534600  1
  La  La5  1  0.00000000  0.36101100  0.01465400  1
  La  La6  1  0.00000000  0.13898900  0.51465400  1
  La  La7  1  0.50000000  0.36101100  0.48534600  1
  Cu  Cu8  1  0.00000000  0.00000000  0.00000000  1
  Cu  Cu9  1  0.50000000  0.00000000  0.50000000  1
  Cu  Cu10  1  0.50000000  0.50000000  0.00000000  1
  Cu  Cu11  1  0.00000000  0.50000000  0.50000000  1
  O  O12  1  0.25000000  0.98876600  0.75000000  1
  O  O13  1  0.50000000  0.68678000  0.94021100  1
  O  O14  1  0.50000000  0.81322000  0.44021100  1
  O  O15  1  0.75000000  0.51123400  0.25000000  1
  O  O16  1  0.75000000  0.98876600  0.75000000  1
  O  O17  1  0.00000000  0.68678000  0.55978900  1
  O  O18  1  0.00000000  0.81322000  0.05978900  1
  O  O19  1  0.25000000  0.51123400  0.25000000  1
  O  O20  1  0.75000000  0.48876600  0.75000000  1
  O  O21  1  0.00000000  0.18678000  0.94021100  1
  O  O22  1  0.00000000  0.31322000  0.44021100  1
  O  O23  1  0.25000000  0.01123400  0.25000000  1
  O  O24  1  0.25000000  0.48876600  0.75000000  1
  O  O25  1  0.50000000  0.18678000  0.55978900  1
  O  O26  1  0.50000000  0.31322000  0.05978900  1
  O  O27  1  0.75000000  0.01123400  0.25000000  1
